pglib-scots/SCOTS-Slack/slack_relative_quadratic/pglib_opf_case793_goc_scots.m
%%%%%%%%%%%%%%%%%%%%%%%%%%%%%%%%%%%%%%%%%%%%%%%%%%%%%%%%%%%%%%%%%%%%%%%%%%%
%%%%                                                                  %%%%%
%%%%    This is a modified SCOTS-feasible instance adapted from the   %%%%%
%%%%                                :                                 %%%%%
%%%%    IEEE PES Power Grid Library - Optimal Power Flow - v21.07     %%%%%
%%%%          (https://github.com/power-grid-lib/pglib-opf)           %%%%%
%%%%               Benchmark Group - Typical Operations               %%%%%
%%%%                         29 - July - 2021                         %%%%%
%%%%                                                                  %%%%%
%%%%%%%%%%%%%%%%%%%%%%%%%%%%%%%%%%%%%%%%%%%%%%%%%%%%%%%%%%%%%%%%%%%%%%%%%%%
%
%   A 793 bus model created by the Sustainable Data Evolution Technology (SDET)
%   tool for use in ARPA-e's Grid Optimization Competition, Challenge 1.
%
%   https://gocompetition.energy.gov/challenges/22/datasets
%
%   Developed by Renke Huang and Ahmad Tbaileh,
%   Pacific Northwest National Laboratory, U.S.A.
%   Provided in the public domain. February, 2020
%
%% MATPOWER Case Format : Version 2
function mpc = pglib_opf_case793_goc
mpc.version = '2';

%%-----  Power Flow Data  -----%%
%% system MVA base
mpc.baseMVA = 100.0;
%% bus data
%    bus_i    type    Pd    Qd    Gs    Bs    area    Vm    Va    baseKV    zone    Vmax    Vmin
mpc.bus = [
	1	1	15.786	6.645	0.0	0.0	1	0.995	0.0	115.0	1	1.06	0.93				
	2	1	25.758	17.953	0.0	15.498	1	0.995	0.0	115.0	1	1.06	0.93				
	3	1	9.059	2.568	0.0	0.0	1	0.995	0.0	35.0	1	1.06	0.93				
	4	1	0.0	0.0	0.0	0.0	1	0.995	0.0	115.0	1	1.06	0.93				
	5	1	0.503	-1.304	0.0	0.0	1	0.995	0.0	13.0	1	1.06	0.93				
	6	1	0.0	0.0	0.0	0.0	1	0.995	0.0	14.0	1	1.06	0.93				
	7	1	6.984	3.995	0.0	0.0	1	0.995	0.0	115.0	1	1.06	0.93				
	8	1	2.177	0.37	0.0	0.0	1	0.995	0.0	13.0	1	1.06	0.93				
	9	1	13.454	2.64	0.0	0.0	1	0.995	0.0	35.0	1	1.06	0.93				
	10	1	0.0	0.0	0.0	0.0	1	0.995	0.0	115.0	1	1.06	0.93				
	11	1	0.0	0.0	0.0	0.0	1	0.995	0.0	115.0	1	1.06	0.93				
	12	1	10.003	6.573	0.0	0.0	1	0.995	0.0	35.0	1	1.06	0.93				
	13	1	8.299	2.28	0.0	0.0	1	0.995	0.0	13.0	1	1.06	0.93				
	15	1	13.341	3.441	0.0	0.0	1	0.995	0.0	35.0	1	1.06	0.93				
	16	1	0.0	0.0	0.0	0.0	1	0.995	0.0	115.0	1	1.06	0.93				
	17	1	0.0	0.0	0.0	0.01604	1	0.995	0.0	115.0	1	1.06	0.93				
	18	1	0.0	0.0	0.0	0.0	1	0.995	0.0	230.0	1	1.06	0.93				
	19	1	0.0	0.0	0.0	0.0	1	0.995	0.0	230.0	1	1.06	0.93				
	20	1	13.054	-4.149	0.0	0.0	1	0.995	0.0	13.0	1	1.06	0.93				
	21	1	8.103	-1.089	0.0	0.0	1	0.995	0.0	115.0	1	1.06	0.93				
	22	1	0.0	0.0	0.0	0.0	1	0.995	0.0	115.0	1	1.06	0.93				
	23	2	0.0	0.0	0.0	-120.31	1	0.995	0.0	115.0	1	1.06	0.93				
	24	1	0.0	0.0	0.0	0.00112	1	0.995	0.0	115.0	1	1.06	0.93				
	25	1	0.0	0.0	0.0	0.0	1	0.995	0.0	14.0	1	1.06	0.93				
	27	1	0.0	0.0	0.0	0.0	1	0.995	0.0	115.0	1	1.06	0.93				
	28	1	24.865	2.958	0.0	-4.24181	1	0.995	0.0	35.0	1	1.06	0.93				
	30	1	0.0	0.0	0.0	0.0	1	0.995	0.0	115.0	1	1.06	0.93				
	31	2	0.0	0.0	0.0	0.0	1	0.995	0.0	230.0	1	1.06	0.93				
	32	1	7.159	1.202	0.0	0.0	1	0.995	0.0	115.0	1	1.06	0.93				
	33	1	0.0	0.0	0.0	0.0	1	0.995	0.0	230.0	1	1.06	0.93				
	34	1	10.024	8.237	0.0	0.0	1	0.995	0.0	35.0	1	1.06	0.93				
	35	1	0.0	0.0	0.0	0.0	1	0.995	0.0	230.0	1	1.06	0.93				
	36	1	108.412	-4.52	0.0	-4.438	1	0.995	0.0	230.0	1	1.06	0.93				
	37	1	-8.37	-3.328	0.0	0.0	1	0.995	0.0	230.0	1	1.06	0.93				
	38	1	0.0	0.0	0.0	0.0	1	0.995	0.0	230.0	1	1.06	0.93				
	39	1	17.809	7.169	0.0	0.0	1	0.995	0.0	35.0	1	1.06	0.93				
	40	1	0.0	0.0	0.0	0.0	1	0.995	0.0	115.0	1	1.06	0.93				
	41	1	0.0	0.0	0.0	0.0	1	0.995	0.0	230.0	1	1.06	0.93				
	43	2	2.054	0.462	0.0	0.0	1	0.995	0.0	115.0	1	1.06	0.93				
	44	1	9.059	2.301	0.0	0.0	1	0.995	0.0	115.0	1	1.06	0.93				
	45	1	0.0	0.0	0.0	0.0	1	0.995	0.0	230.0	1	1.06	0.93				
	46	2	0.0	0.0	0.0	0.0	1	0.995	0.0	230.0	1	1.06	0.93				
	47	2	10.794	-1.53	0.0	0.0	1	0.995	0.0	115.0	1	1.06	0.93				
	49	1	10.024	8.237	0.0	0.0	1	0.995	0.0	35.0	1	1.06	0.93				
	50	1	0.0	0.0	0.0	0.0	1	0.995	0.0	115.0	1	1.06	0.93				
	51	1	5.135	3.081	0.0	0.0	1	0.995	0.0	13.0	1	1.06	0.93				
	52	2	0.0	0.0	0.0	0.0	1	0.995	0.0	230.0	1	1.06	0.93				
	53	1	7.169	0.555	0.0	0.0	1	0.995	0.0	115.0	1	1.06	0.93				
	54	1	14.656	-1.109	0.0	-5.72432	1	0.995	0.0	35.0	1	1.06	0.93				
	55	2	0.0	0.0	0.0	0.0	1	0.995	0.0	230.0	1	1.06	0.93				
	56	1	6.429	5.947	0.0	0.0	1	0.995	0.0	35.0	1	1.06	0.93				
	57	1	7.364	-0.277	0.0	0.0	1	0.995	0.0	115.0	1	1.06	0.93				
	58	1	10.106	10.951	0.0	34.59177	1	0.995	0.0	115.0	1	1.06	0.93				
	59	2	9.151	5.402	0.0	0.0	1	0.995	0.0	35.0	1	1.06	0.93				
	60	1	0.0	0.0	0.0	0.0	1	0.995	0.0	115.0	1	1.06	0.93				
	61	1	3.851	-0.472	0.0	0.0	1	0.995	0.0	13.0	1	1.06	0.93				
	62	1	8.001	-0.277	0.0	0.0	1	0.995	0.0	115.0	1	1.06	0.93				
	63	1	30.318	0.092	0.0	0.0	1	0.995	0.0	230.0	1	1.06	0.93				
	64	1	8.699	7.713	0.0	0.0	1	0.995	0.0	35.0	1	1.06	0.93				
	65	2	0.935	0.606	0.0	0.0	1	0.995	0.0	14.0	1	1.06	0.93				
	66	1	0.0	0.0	0.0	0.0	1	0.995	0.0	230.0	1	1.06	0.93				
	67	1	0.0	0.0	0.0	24.99993	1	0.995	0.0	115.0	1	1.06	0.93				
	68	1	7.22	-0.267	0.0	0.0	1	0.995	0.0	115.0	1	1.06	0.93				
	69	1	0.0	0.0	0.0	0.0	1	0.995	0.0	230.0	1	1.06	0.93				
	70	1	5.69	-3.564	0.0	0.0	1	0.995	0.0	35.0	1	1.06	0.93				
	71	2	11.544	-3.594	0.0	0.0	1	0.995	0.0	115.0	1	1.06	0.93				
	72	1	5.495	0.359	0.0	0.0	1	0.995	0.0	115.0	1	1.06	0.93				
	73	1	0.0	0.0	0.0	0.0	1	0.995	0.0	115.0	1	1.06	0.93				
	74	1	6.82	4.888	0.0	0.0018	1	0.995	0.0	115.0	1	1.06	0.93				
	75	1	3.061	-2.485	0.0	0.0	1	0.995	0.0	13.0	1	1.06	0.93				
	76	1	5.484	-0.277	0.0	0.0	1	0.995	0.0	115.0	1	1.06	0.93				
	77	1	24.064	0.431	0.0	0.0	1	0.995	0.0	35.0	1	1.06	0.93				
	78	1	14.327	3.533	0.0	0.0	1	0.995	0.0	35.0	1	1.06	0.93				
	79	1	0.0	0.0	0.0	0.0	1	0.995	0.0	230.0	1	1.06	0.93				
	80	1	0.924	0.555	0.0	0.0	1	0.995	0.0	14.0	1	1.06	0.93				
	81	1	30.844	22.078	0.0	21.502	1	0.995	0.0	115.0	1	1.06	0.93				
	82	1	7.169	0.555	0.0	0.0	1	0.995	0.0	115.0	1	1.06	0.93				
	83	1	0.0	0.0	0.0	0.0	1	0.995	0.0	115.0	1	1.06	0.93				
	84	1	8.894	0.565	0.0	0.0	1	0.995	0.0	115.0	1	1.06	0.93				
	85	1	14.04	3.934	0.0	0.0	1	0.995	0.0	115.0	1	1.06	0.93				
	86	2	0.0	0.0	0.0	0.0	1	0.995	0.0	230.0	1	1.06	0.93				
	87	1	0.0	0.0	0.0	0.0	1	0.995	0.0	230.0	1	1.06	0.93				
	88	1	-0.267	0.01	0.0	-1.54156	1	0.995	0.0	35.0	1	1.06	0.93				
	89	1	20.079	0.021	0.0	0.0	1	0.995	0.0	35.0	1	1.06	0.93				
	90	2	0.0	0.0	0.0	0.0	1	0.995	0.0	230.0	1	1.06	0.93				
	91	1	0.0	0.0	0.0	0.0	1	0.995	0.0	115.0	1	1.06	0.93				
	92	1	4.653	-0.277	0.0	0.0	1	0.995	0.0	115.0	1	1.06	0.93				
	93	2	0.0	0.0	0.0	0.0	1	0.995	0.0	115.0	1	1.06	0.93				
	94	1	2.229	2.578	0.0	11.80457	1	0.995	0.0	115.0	1	1.06	0.93				
	95	1	0.0	0.0	0.0	0.0	1	0.995	0.0	345.0	2	1.06	0.93				
	96	1	22.758	40.419	0.0	0.0	1	0.995	0.0	345.0	2	1.06	0.93				
	97	1	19.34	25.99	0.0	0.0	1	0.995	0.0	345.0	2	1.06	0.93				
	98	1	0.0	0.0	0.0	-24.285	1	0.995	0.0	345.0	2	1.06	0.93				
	99	1	7.189	18.487	0.0	0.0	1	0.995	0.0	345.0	2	1.06	0.93				
	100	1	8.216	21.568	0.0	4.571	1	0.995	0.0	345.0	2	1.06	0.93				
	101	1	105.543	20.117	0.0	0.0	1	0.995	0.0	345.0	2	1.06	0.93				
	102	1	1.156	-45.892	0.0	-43.607	1	0.995	0.0	345.0	2	1.06	0.93				
	103	1	0.0	0.0	0.0	0.0	1	0.995	0.0	138.0	2	1.06	0.93				
	104	1	0.0	0.0	0.0	0.0	1	0.995	0.0	138.0	2	1.06	0.93				
	105	2	4.396	1.623	0.0	0.0	1	0.995	0.0	138.0	2	1.06	0.93				
	106	1	5.628	2.362	0.0	0.0	1	0.995	0.0	138.0	2	1.06	0.93				
	107	1	0.0	0.0	0.0	0.0	1	0.995	0.0	138.0	2	1.06	0.93				
	108	1	10.028	-13.958	0.0	0.0	1	0.995	0.0	138.0	2	1.06	0.93				
	109	1	8.453	2.218	0.0	0.0	1	0.995	0.0	138.0	2	1.06	0.93				
	110	1	1.921	0.822	0.0	0.0	1	0.995	0.0	138.0	2	1.06	0.93				
	111	1	3.43	1.458	0.0	0.0	1	0.995	0.0	138.0	2	1.06	0.93				
	112	1	13.886	5.166	0.0	0.0	1	0.995	0.0	138.0	2	1.06	0.93				
	113	1	0.0	0.0	0.0	0.0	1	0.995	0.0	138.0	2	1.06	0.93				
	114	1	0.0	0.0	0.0	0.0	1	0.995	0.0	138.0	2	1.06	0.93				
	115	1	4.94	1.777	0.0	0.0	1	0.995	0.0	138.0	2	1.06	0.93				
	116	1	24.249	21.671	0.0	0.0	1	0.995	0.0	138.0	2	1.06	0.93				
	117	1	0.0	0.0	0.0	0.0	1	0.995	0.0	138.0	2	1.06	0.93				
	118	1	5.608	2.372	0.0	0.0	1	0.995	0.0	138.0	2	1.06	0.93				
	119	1	0.0	0.0	0.0	0.0	1	0.995	0.0	138.0	2	1.06	0.93				
	120	1	9.88	3.225	0.0	0.0	1	0.995	0.0	138.0	2	1.06	0.93				
	121	1	0.0	0.0	0.0	0.0	1	0.995	0.0	138.0	2	1.06	0.93				
	122	1	0.0	0.0	0.0	0.0	1	0.995	0.0	138.0	2	1.06	0.93				
	123	1	0.0	0.0	0.0	0.0	1	0.995	0.0	138.0	2	1.06	0.93				
	124	1	0.0	0.0	0.0	0.0	1	0.995	0.0	138.0	2	1.06	0.93				
	125	1	0.0	0.0	0.0	0.0	1	0.995	0.0	138.0	2	1.06	0.93				
	126	1	0.0	0.0	0.0	0.0	1	0.995	0.0	138.0	2	1.06	0.93				
	127	1	0.0	0.0	0.0	0.0	1	0.995	0.0	138.0	2	1.06	0.93				
	128	1	1.027	0.39	0.0	0.0	1	0.995	0.0	138.0	2	1.06	0.93				
	129	1	4.611	3.194	0.0	0.0	1	0.995	0.0	138.0	2	1.06	0.93				
	130	1	0.0	0.0	0.0	0.0	1	0.995	0.0	138.0	2	1.06	0.93				
	131	1	82.164	40.055	0.0	0.0	1	0.995	0.0	138.0	2	1.06	0.93				
	132	1	5.371	1.859	0.0	0.0	1	0.995	0.0	138.0	2	1.06	0.93				
	133	1	1.972	0.616	0.0	-1.321	1	0.995	0.0	138.0	2	1.06	0.93				
	134	2	54.434	25.697	0.0	0.0	1	0.995	0.0	138.0	2	1.06	0.93				
	135	1	6.162	2.188	0.0	0.0	1	0.995	0.0	138.0	2	1.06	0.93				
	136	1	2.855	0.924	0.0	0.0	1	0.995	0.0	138.0	2	1.06	0.93				
	137	1	39.039	-9.159	0.0	-13.204	1	0.995	0.0	138.0	2	1.06	0.93				
	138	1	0.442	0.103	0.0	0.0	1	0.995	0.0	138.0	2	1.06	0.93				
	139	1	0.0	0.0	0.0	0.0	1	0.995	0.0	138.0	2	1.06	0.93				
	140	1	2.855	1.705	0.0	0.0	1	0.995	0.0	138.0	2	1.06	0.93				
	141	1	5.988	0.688	0.0	0.0	1	0.995	0.0	138.0	2	1.06	0.93				
	142	1	8.34	2.835	0.0	0.0	1	0.995	0.0	138.0	2	1.06	0.93				
	143	1	0.426	1.249	0.0	1.197	1	0.995	0.0	138.0	2	1.06	0.93				
	144	1	0.0	0.0	0.0	0.0	1	0.995	0.0	138.0	2	1.06	0.93				
	145	1	53.244	16.969	0.0	16.36	1	0.995	0.0	138.0	2	1.06	0.93				
	146	1	1.643	0.411	0.0	0.0	1	0.995	0.0	138.0	2	1.06	0.93				
	147	1	1.099	0.503	0.0	0.0	1	0.995	0.0	138.0	2	1.06	0.93				
	148	1	6.707	2.865	0.0	0.0	1	0.995	0.0	138.0	2	1.06	0.93				
	149	1	9.227	-8.412	0.0	-8.091	1	0.995	0.0	138.0	2	1.06	0.93				
	150	1	4.94	1.551	0.0	0.0	1	0.995	0.0	138.0	2	1.06	0.93				
	151	2	19.421	31.027	0.0	0.0	1	0.995	0.0	138.0	2	1.06	0.93				
	152	2	7.189	14.379	0.0	0.0	1	0.995	0.0	138.0	2	1.06	0.93				
	153	1	9.336	3.143	0.0	0.0	1	0.995	0.0	138.0	2	1.06	0.93				
	154	1	0.0	0.0	0.0	0.0	1	0.995	0.0	138.0	2	1.06	0.93				
	155	1	0.0	0.0	0.0	0.0	1	0.995	0.0	138.0	2	1.06	0.93				
	156	1	0.0	0.0	0.0	40.892	1	0.995	0.0	138.0	2	1.06	0.93				
	157	1	3.02	1.284	0.0	0.0	1	0.995	0.0	138.0	2	1.06	0.93				
	158	1	0.0	0.0	0.0	0.0	1	0.995	0.0	138.0	2	1.06	0.93				
	159	2	14.944	0.565	0.0	0.0	1	0.995	0.0	138.0	2	1.06	0.93				
	160	1	11.534	2.732	0.0	0.0	1	0.995	0.0	138.0	2	1.06	0.93				
	161	1	6.553	2.845	0.0	0.0	1	0.995	0.0	138.0	2	1.06	0.93				
	162	1	8.535	3.78	0.0	0.0	1	0.995	0.0	138.0	2	1.06	0.93				
	163	1	0.873	0.082	0.0	0.0	1	0.995	0.0	138.0	2	1.06	0.93				
	164	1	0.0	0.0	0.0	0.0	1	0.995	0.0	138.0	2	1.06	0.93				
	165	1	0.678	0.401	0.0	0.0	1	0.995	0.0	138.0	2	1.06	0.93				
	166	1	0.544	0.318	0.0	0.0	1	0.995	0.0	138.0	2	1.06	0.93				
	167	1	0.0	0.0	0.0	0.0	1	0.995	0.0	138.0	2	1.06	0.93				
	168	1	10.65	3.554	0.0	0.0	1	0.995	0.0	138.0	2	1.06	0.93				
	169	1	2.64	0.955	0.0	0.0	1	0.995	0.0	138.0	2	1.06	0.93				
	170	1	0.0	0.0	0.0	0.0	1	0.995	0.0	138.0	2	1.06	0.93				
	171	1	5.495	0.781	0.0	0.0	1	0.995	0.0	138.0	2	1.06	0.93				
	172	1	0.0	0.0	0.0	0.0	1	0.995	0.0	138.0	2	1.06	0.93				
	173	1	7.456	2.783	0.0	0.0	1	0.995	0.0	138.0	2	1.06	0.93				
	174	1	0.0	0.0	0.0	0.0	1	0.995	0.0	138.0	2	1.06	0.93				
	175	1	3.071	1.171	0.0	0.0	1	0.995	0.0	138.0	2	1.06	0.93				
	176	1	6.594	2.342	0.0	0.0	1	0.995	0.0	138.0	2	1.06	0.93				
	177	1	0.0	0.0	0.0	0.0	1	0.995	0.0	138.0	2	1.06	0.93				
	178	1	0.0	0.0	0.0	0.0	1	0.995	0.0	138.0	2	1.06	0.93				
	179	2	6.152	2.116	0.0	0.0	1	0.995	0.0	138.0	2	1.06	0.93				
	180	1	0.0	0.0	0.0	0.0	1	0.995	0.0	138.0	2	1.06	0.93				
	181	1	4.663	1.941	0.0	0.0	1	0.995	0.0	138.0	2	1.06	0.93				
	182	1	4.396	1.838	0.0	0.0	1	0.995	0.0	138.0	2	1.06	0.93				
	183	1	0.0	0.0	0.0	0.0	1	0.995	0.0	138.0	2	1.06	0.93				
	184	1	3.738	1.263	0.0	0.0	1	0.995	0.0	138.0	2	1.06	0.93				
	185	1	4.385	1.592	0.0	0.0	1	0.995	0.0	138.0	2	1.06	0.93				
	186	1	0.0	0.0	0.0	0.0	1	0.995	0.0	138.0	2	1.06	0.93				
	187	1	0.0	0.0	0.0	0.0	1	0.995	0.0	138.0	2	1.06	0.93				
	188	1	0.77	0.38	0.0	0.0	1	0.995	0.0	138.0	2	1.06	0.93				
	189	1	1.315	0.596	0.0	0.0	1	0.995	0.0	138.0	2	1.06	0.93				
	190	2	0.0	0.0	0.0	0.0	1	0.995	0.0	138.0	2	1.06	0.93				
	191	1	4.724	1.777	0.0	0.0	1	0.995	0.0	138.0	2	1.06	0.93				
	192	1	0.0	0.0	0.0	0.0	1	0.995	0.0	138.0	2	1.06	0.93				
	193	1	4.724	1.674	0.0	0.0	1	0.995	0.0	138.0	2	1.06	0.93				
	194	1	12.52	4.067	0.0	0.0	1	0.995	0.0	138.0	2	1.06	0.93				
	195	1	18.155	5.789	0.0	5.562	1	0.995	0.0	138.0	2	1.06	0.93				
	196	1	0.0	0.0	0.0	0.0	1	0.995	0.0	138.0	2	1.06	0.93				
	197	1	0.0	0.0	0.0	0.0	1	0.995	0.0	138.0	2	1.06	0.93				
	198	1	3.954	1.417	0.0	0.0	1	0.995	0.0	138.0	2	1.06	0.93				
	199	1	0.0	0.0	0.0	0.0	1	0.995	0.0	138.0	2	1.06	0.93				
	200	1	5.454	1.52	0.0	0.0	1	0.995	0.0	138.0	2	1.06	0.93				
	201	1	7.621	2.064	0.0	0.0	1	0.995	0.0	138.0	2	1.06	0.93				
	202	1	2.208	0.575	0.0	0.0	1	0.995	0.0	138.0	2	1.06	0.93				
	203	1	0.0	0.0	0.0	0.0	1	0.995	0.0	138.0	2	1.06	0.93				
	204	1	12.14	4.786	0.0	0.0	1	0.995	0.0	138.0	2	1.06	0.93				
	205	1	11.513	4.971	0.0	0.0	1	0.995	0.0	138.0	2	1.06	0.93				
...
];

%%	 generator data
%    bus    Pg    Qg    Qmax    Qmin    Vg    mBase    status    Pmax    Pmin    Pc1    Pc2    Qc1min    Qc1max    Qc2min    Qc2max    ramp_agc    ramp_10    ramp_30    ramp_q    apf
mpc.gen = [
	6	0.0	0.0	33.333	-33.333	0.995	100.0	0	63.0	28.5															
	23	264.158	0.0	183.0	-183.0	0.995	100.0	1	526.316	2.0															
	25	0.0	0.0	22.5	-22.5	0.995	67.5	0	280.0	2.0															
	25	0.0	0.0	22.5	-22.5	0.995	67.5	0	60.43	14.25															
	31	85.3615	0.0	160.0	-160.0	0.995	100.0	1	139.506	34.685															
	33	0.0	0.0	19.29	-19.29	0.995	57.87	0	46.2	11.4															
	35	0.0	0.0	33.127	-33.127	0.995	99.38	0	288.0	2.0															
	35	0.0	0.0	23.05	-23.05	0.995	69.15	0	300.0	2.0															
	35	0.0	0.0	16.237	-16.237	0.995	48.71	0	40.14	25.14															
	43	151.091	0.0	160.0	-160.0	0.995	100.0	1	301.053	1.129															
	45	0.0	0.0	67.75	-67.75	0.995	203.25	0	173.25	50.54															
	46	33.616	0.0	160.0	-160.0	0.995	100.0	1	55.716	11.516															
	47	42.0025	0.0	160.0	-160.0	0.995	100.0	1	68.734	15.271															
	52	69.6935	0.0	160.0	-160.0	0.995	100.0	1	111.717	27.67															
	55	85.337	0.0	160.0	-160.0	0.995	100.0	1	136.737	34.674															
	59	150.864	-18.734	66.11	-103.578	0.995	100.0	1	297.895	3.833															
	65	136.328	44.631	92.232	-2.97	0.995	27.8	1	265.263	7.393															
	65	0.0	0.0	9.267	-9.267	0.995	27.8	0	25.2	4.75															
	71	41.468	0.0	160.0	-160.0	0.995	100.0	1	67.904	15.032															
	80	0.0	0.0	9.267	-9.267	0.995	27.8	0	26.25	4.75															
	80	0.0	0.0	9.267	-9.267	0.995	27.8	0	25.2	2.0															
	86	51.443	0.0	160.0	-160.0	0.995	100.0	1	84.692	19.498															
	87	0.0	0.0	95.526	-95.526	0.995	100.0	0	274.737	2.0															
	90	36.118	0.0	160.0	-160.0	0.995	100.0	1	59.599	12.637															
	93	134.114	0.0	160.0	-160.0	0.995	100.0	1	265.263	2.965															
	98	0.0	0.0	33.333	-33.333	0.995	100.0	0	65.268	50.268															
	99	0.0	0.0	52.613	-1.0	0.995	163.45	0	151.316	70.0															
	100	0.0	0.0	52.613	-1.0	0.995	148.19	0	151.316	70.0															
	100	0.0	0.0	33.333	-33.333	0.995	100.0	0	28.104	13.104															
	105	65.658	0.0	43.92	-43.92	0.995	100.0	1	126.316	5.0															
	116	0.0	0.0	50.325	-40.0	0.995	147.7	0	144.737	32.0															
	117	0.0	0.0	37.667	-37.667	0.995	113.0	0	113.0	32.0															
	121	0.0	0.0	45.0	-45.0	0.995	135.0	0	135.0	35.0															
	131	0.0	0.0	8.333	-8.333	0.995	25.0	0	25.0	10.0															
	131	0.0	0.0	8.333	-8.333	0.995	25.0	0	25.0	10.0															
	131	0.0	0.0	11.438	-11.438	0.995	30.0	0	32.895	10.0															
	131	0.0	0.0	9.15	-9.15	0.995	25.0	0	26.316	10.0															
	133	0.0	0.0	33.333	-33.333	0.995	100.0	0	295.0	2.396															
	134	28.816	0.0	16.667	-16.667	0.995	50.0	1	52.632	5.0															
	151	0.0	0.0	43.92	-1.0	0.995	120.0	0	126.316	70.0															
	151	92.3245	21.46	43.92	-1.0	0.995	120.0	1	126.316	58.333															
	151	65.658	0.0	43.92	-43.92	0.995	100.0	1	126.316	5.0															
	152	118.4435	26.9485	54.897	-1.0	0.995	144.0	1	157.887	79.0															
	152	0.0	0.0	36.667	-36.667	0.995	110.0	0	110.0	79.0															
	156	0.0	0.0	33.333	-33.333	0.995	100.0	0	62.466	47.466															
	159	154.229	0.0	160.0	-160.0	0.995	100.0	1	308.421	0.037															
	179	68.158	0.0	43.92	-43.92	0.995	100.0	1	126.316	10.0															
	190	50.9945	0.0	160.0	-160.0	0.995	100.0	1	83.856	18.133															
	221	0.0	0.0	123.333	-123.333	0.995	370.0	0	370.0	240.0															
	221	0.0	0.0	123.333	-123.333	0.995	370.0	0	370.0	240.0															
	221	0.0	0.0	157.837	-23.75	0.995	449.45	0	453.947	240.0															
	222	363.421	75.1375	169.275	-19.0	0.995	455.56	1	486.842	240.0															
	222	0.0	0.0	135.42	-19.0	0.995	397.31	0	389.474	240.0															
	223	599.6645	85.5	190.0	-19.0	0.995	616.84	1	1148.453	50.876															
	223	599.6645	85.5	190.0	-19.0	0.995	616.84	1	1148.453	50.876															
	223	599.6645	85.5	190.0	-19.0	0.995	616.84	1	1148.453	50.876															
	224	0.0	0.0	169.275	-19.0	0.995	451.84	0	486.842	240.0															
	224	343.684	68.275	155.55	-19.0	0.995	416.51	1	447.368	240.0															
	224	343.684	68.275	155.55	-19.0	0.995	416.51	1	447.368	240.0															
	233	114.9395	0.0	160.0	-160.0	0.995	100.0	1	186.779	43.1															
	236	0.0	0.0	50.325	-15.0	0.995	166.81	0	144.737	91.667															
	236	264.158	0.0	183.0	-183.0	0.995	120.0	1	526.316	2.0															
	246	350.263	70.5625	160.125	-19.0	0.995	477.9	1	460.526	240.0															
	250	0.0	0.0	10.98	-10.98	0.995	30.0	0	31.579	2.0															
	256	134.684	0.0	92.964	-92.964	0.995	0.43	1	267.368	2.0															
	267	156.05	0.0	160.0	-160.0	0.995	100.0	1	309.474	2.626															
	268	259.8835	0.0	160.0	-160.0	0.995	100.0	1	422.316	97.451															
	272	46.826	0.0	160.0	-160.0	0.995	100.0	1	78.395	15.257															
	275	39.1815	0.0	160.0	-160.0	0.995	100.0	1	76.902	1.461															
	281	144.049	0.0	160.0	-160.0	0.995	100.0	1	286.316	1.782															
	293	0.0	0.0	76.667	-76.667	0.995	230.0	0	173.25	117.8															
	296	0.0	0.0	76.667	-76.667	0.995	230.0	0	173.25	117.8															
	298	16.787	0.0	160.0	-160.0	0.995	100.0	1	29.593	3.981															
	303	65.658	0.0	43.92	-43.92	0.995	100.0	1	126.99	5.0															
	304	0.0	0.0	33.333	-33.333	0.995	100.0	0	44.434	29.434															
	305	0.0	0.0	76.667	-76.667	0.995	230.0	0	173.25	117.8															
	307	22.7335	0.0	160.0	-160.0	0.995	100.0	1	38.823	6.644															
	309	0.0	0.0	147.09	-81.3	0.995	300.0	0	519.615	198.808															
	326	0.0	0.0	76.667	-76.667	0.995	230.0	0	173.25	117.8															
	335	0.0	0.0	76.667	-76.667	0.995	230.0	0	173.25	117.8															
	337	137.2695	0.0	160.0	-160.0	0.995	100.0	1	272.632	1.907															
	342	0.0	0.0	99.918	-99.918	0.995	100.0	0	287.368	2.0															
	345	16.223	0.0	160.0	-160.0	0.995	100.0	1	28.717	3.729															
	350	84.149	0.0	160.0	-160.0	0.995	100.0	1	134.156	34.142															
	352	0.0	0.0	302.333	-302.333	0.995	907.0	0	254.0	2.0															
	353	75.017	0.0	160.0	-160.0	0.995	100.0	1	124.492	25.542															
	357	0.0	0.0	33.333	-33.333	0.995	100.0	0	137.965	122.965															
	361	327.7325	0.0	160.0	-160.0	0.995	100.0	1	526.43	129.035															
	364	0.0	0.0	33.333	-33.333	0.995	100.0	0	42.029	27.029															
	370	0.0	0.0	92.945	-62.0	0.995	216.55	0	267.313	99.538															
	370	0.0	0.0	92.945	-62.0	0.995	179.0	0	267.313	99.538															
	370	0.0	0.0	92.945	-75.0	0.995	179.0	0	267.313	99.538															
	371	0.0	0.0	65.514	-65.514	0.995	179.0	0	188.421	2.0															
	373	41.9475	0.0	20.13	-20.13	0.995	58.99	1	57.895	26.0															
	374	0.0	0.0	18.333	-18.333	0.995	55.0	0	55.0	26.0															
	375	0.0	0.0	107.604	-107.604	0.995	0.36	0	309.474	2.0															
	376	0.0	0.0	9.516	-9.516	0.995	26.0	0	27.368	2.0															
	376	0.0	0.0	33.333	-33.333	0.995	100.0	0	261.0	3.293															
	380	0.0	0.0	33.333	-33.333	0.995	100.0	0	33.035	18.035															
	384	0.0	0.0	6.588	-6.588	0.995	18.0	0	18.947	2.0															
	385	12.579	0.0	8.052	-8.052	0.995	22.0	1	23.158	2.0															
	390	0.0	0.0	33.333	-33.333	0.995	100.0	0	28.078	13.078															
	391	156.7895	0.0	108.336	-108.336	0.995	0.24	1	311.579	2.0															
	395	0.0	0.0	97.722	-97.722	0.995	2.0	0	281.053	2.0															
	401	0.0	0.0	94.794	-94.794	0.995	1.0	0	272.632	2.0															
	402	0.0	0.0	96.258	-96.258	0.995	1.08	0	276.842	2.0															
	408	0.0	0.0	107.97	-107.97	0.995	0.12	0	310.526	2.0															
	414	0.0	0.0	100.65	-100.65	0.995	9.0	0	289.474	2.0															
	416	146.263	0.0	101.016	-101.016	0.995	0.24	1	290.526	2.0															
	422	63.5965	0.0	160.0	-160.0	0.995	100.0	1	123.413	3.78															
	428	146.263	0.0	101.016	-101.016	0.995	7.22	1	290.526	2.0															
	428	0.0	0.0	97.356	-97.356	0.995	5.0	0	280.0	2.0															
	428	0.0	0.0	107.97	-107.97	0.995	5.0	0	310.526	2.0															
	436	66.8685	0.0	160.0	-160.0	0.995	100.0	1	121.822	11.915															
	437	100.991	0.0	160.0	-160.0	0.995	100.0	1	179.592	22.39															
	442	0.0	0.0	33.333	-33.333	0.995	100.0	0	275.0	2.602															
	443	0.0	0.0	33.333	-33.333	0.995	100.0	0	29.367	14.367															
	444	0.0	0.0	1.333	-1.333	0.995	4.0	0	289.0	3.0															
	449	27.0495	0.0	160.0	-160.0	0.995	100.0	1	47.8	6.299															
	469	134.684	0.0	92.964	-92.964	0.995	2.0	1	267.368	2.0															
	470	0.0	0.0	11.667	-11.667	0.995	35.0	0	35.0	9.0															
	470	0.0	0.0	9.201	-9.201	0.995	24.12	0	26.461	9.0															
	471	0.0	0.0	11.667	-11.667	0.995	35.0	0	35.0	9.0															
	471	0.0	0.0	10.0	-10.0	0.995	30.0	0	30.0	9.0															
	471	0.0	0.0	9.333	-9.333	0.995	28.0	0	28.0	9.0															
	474	40.0745	0.0	160.0	-160.0	0.995	100.0	1	70.019	10.13															
	480	40.219	0.0	160.0	-160.0	0.995	100.0	1	67.396	14.473															
	481	32.06	0.0	160.0	-160.0	0.995	100.0	1	54.234	10.82															
	482	62.751	0.0	160.0	-160.0	0.995	100.0	1	104.312	24.561															
	483	178.6095	0.0	160.0	-160.0	0.995	100.0	1	333.289	50.888															
	487	84.783	0.0	160.0	-160.0	0.995	100.0	1	141.151	34.426															
	490	51.557	0.0	160.0	-160.0	0.995	100.0	1	85.866	19.549															
	494	46.8965	0.0	160.0	-160.0	0.995	100.0	1	83.599	10.194															
	499	54.093	0.0	160.0	-160.0	0.995	100.0	1	89.883	18.05															
	525	0.0	0.0	33.333	-33.333	0.995	100.0	0	203.917	188.917															
	549	32.947	0.0	160.0	-160.0	0.995	100.0	1	58.89	7.318															
	559	0.0	0.0	31.015	-31.015	0.995	93.044	0	80.5	31.0															
	564	0.0	0.0	47.69	-11.618	0.995	141.505	0	137.159	36.178															
	565	0.0	0.0	47.692	-11.62	0.995	135.577	0	137.164	38.4															
	566	0.0	0.0	47.692	-11.62	0.995	120.747	0	137.164	26.42															
	567	0.0	0.0	47.692	-11.62	0.995	153.119	0	137.164	13.12															
	568	0.0	0.0	47.69	-11.618	0.995	120.216	0	137.159	52.077															
	569	80.462	18.036	47.692	-11.62	0.995	110.999	1	143.047	23.76															
	570	0.0	0.0	44.179	-44.179	0.995	132.538	0	95.0	40.98															
	571	82.925	16.3705	43.286	-10.545	0.995	125.632	1	129.34	41.357															
	572	0.0	0.0	43.286	-10.54	0.995	97.012	0	124.493	39.82															
	573	0.0	0.0	5.906	-5.906	0.995	12.76	0	16.985	2.0															
	576	0.0	0.0	33.333	-33.333	0.995	100.0	0	85.769	70.769															
	578	175.3945	27.015	75.03	-21.0	0.995	253.76	1	215.789	135.0															
	579	0.0	0.0	68.333	-68.333	0.995	205.0	0	205.0	135.0															
	579	0.0	0.0	84.912	-31.0	0.995	232.0	0	244.211	100.0															
	579	264.158	0.0	183.0	-183.0	0.995	222.0	1	526.316	2.0															
	580	0.0	0.0	91.616	-15.0	0.995	268.92	0	263.492	90.0															
	581	0.0	0.0	77.333	-77.333	0.995	232.0	0	232.0	100.0															
	581	0.0	0.0	91.5	-15.0	0.995	268.92	0	263.158	90.0															
	587	517.9985	0.0	160.0	-160.0	0.995	100.0	1	963.105	72.892															
	591	0.0	0.0	33.333	-33.333	0.995	100.0	0	74.949	59.949															
	596	161.842	31.126	81.252	-19.0	0.995	222.0	1	233.684	90.0															
	599	0.0	0.0	0.333	-0.333	0.995	1.0	0	299.0	2.0															
	602	0.0	0.0	7.32	-7.32	0.995	20.0	0	21.053	5.0															
	611	0.0	0.0	9.516	-9.516	0.995	26.0	0	27.368	2.0															
	619	0.0	0.0	0.333	-0.333	0.995	1.0	0	252.0	2.0															
	620	136.7895	0.0	94.428	-94.428	0.995	2.0	1	271.579	2.0															
	623	0.0	0.0	33.333	-33.333	0.995	100.0	0	259.0	5.802															
	625	27.316	0.0	18.3	-18.3	0.995	50.0	1	52.632	2.0															
	630	146.7895	0.0	101.382	-101.382	0.995	108.13	1	291.579	2.0															
	633	78.0835	0.0	160.0	-160.0	0.995	100.0	1	145.216	10.951															
	634	156.005	0.0	160.0	-160.0	0.995	100.0	1	296.567	15.443															
	639	0.0	0.0	33.333	-33.333	0.995	100.0	0	85.248	70.248															
	640	0.0	0.0	33.333	-33.333	0.995	100.0	0	221.788	206.788															
	645	182.7695	15.4275	92.855	-62.0	0.995	216.55	1	267.056	98.483															
	645	0.0	0.0	92.855	-62.0	0.995	179.0	0	267.056	98.483															
	645	182.7695	8.9275	92.855	-75.0	0.995	179.0	1	267.056	98.483															
	646	95.2105	0.0	65.514	-65.514	0.995	179.0	1	188.421	2.0															
	648	264.158	0.0	183.0	-183.0	0.995	100.0	1	526.316	2.0															
	649	0.0	0.0	20.13	-20.13	0.995	58.99	0	57.895	26.0															
	650	0.0	0.0	18.333	-18.333	0.995	55.0	0	55.0	26.0															
	652	143.1055	0.0	98.82	-98.82	0.995	0.36	1	284.211	2.0															
	652	264.158	0.0	183.0	-183.0	0.995	100.0	1	526.316	2.0															
	659	10.4735	0.0	6.588	-6.588	0.995	18.0	1	18.947	2.0															
	660	0.0	0.0	8.052	-8.052	0.995	22.0	0	23.158	2.0															
	667	157.316	0.0	108.702	-108.702	0.995	0.24	1	312.632	2.0															
	667	264.158	0.0	183.0	-183.0	0.995	100.0	1	526.316	2.0															
	674	145.2105	0.0	100.284	-100.284	0.995	2.0	1	288.421	2.0															
	675	8.8945	0.0	5.49	-5.49	0.995	15.0	1	15.789	2.0															
	679	0.0	0.0	93.33	-93.33	0.995	1.0	0	268.421	2.0															
	684	156.263	0.0	107.97	-107.97	0.995	0.12	1	310.526	2.0															
	684	0.0	0.0	33.333	-33.333	0.995	100.0	0	34.44	19.44															
	688	142.0525	0.0	98.088	-98.088	0.995	9.0	1	282.105	2.0															
	690	154.158	0.0	106.506	-106.506	0.995	0.24	1	306.316	2.0															
	690	264.158	0.0	183.0	-183.0	0.995	100.0	1	526.316	2.0															
	693	264.158	0.0	183.0	-183.0	0.995	100.0	1	526.316	2.0															
	696	0.0	0.0	33.333	-33.333	0.995	100.0	0	28.122	13.122															
	697	0.0	0.0	33.333	-33.333	0.995	100.0	0	257.0	4.417															
	698	0.0	0.0	52.613	-1.0	0.995	148.19	0	151.316	70.0															
	702	0.0	0.0	50.325	-40.0	0.995	147.7	0	144.737	32.0															
	703	0.0	0.0	37.667	-37.667	0.995	113.0	0	113.0	32.0															
	706	0.0	0.0	45.0	-45.0	0.995	135.0	0	135.0	35.0															
	719	0.0	0.0	54.903	-1.25	0.995	144.0	0	157.903	79.0															
	719	0.0	0.0	36.667	-36.667	0.995	110.0	0	110.0	79.0															
...
];

%%	 branch data
%    f_bus    t_bus    r    x    b    rateA    rateB    rateC    ratio    angle    status    angmin    angmax
mpc.branch = [
	1	60	0.02461	0.07336	0.00802	128.0	128.0	128.0	0	0	1	-30.0	30.0								
	1	93	0.03244	0.09513	0.01073	128.0	128.0	128.0	0	0	1	-30.0	30.0								
	2	74	0.00068	0.00368	0.00043	125.0	125.0	125.0	0	0	1	-30.0	30.0								
	2	549	0.0001	0.01	0.0	119.81	143.78	143.8	0	0	1	-30.0	30.0								
	4	43	0.0037	0.01909	0.00247	190.0	190.0	190.0	0	0	1	-30.0	30.0								
	4	93	0.00349	0.01802	0.00231	190.0	190.0	190.0	0	0	1	-30.0	30.0								
	7	60	0.01649	0.04916	0.00537	128.0	128.0	128.0	0	0	1	-30.0	30.0								
	7	73	0.00374	0.01116	0.00122	128.0	128.0	128.0	0	0	1	-30.0	30.0								
	10	27	0.0125	0.02353	0.00262	74.0	74.0	74.0	0	0	1	-30.0	30.0								
	11	92	0.00236	0.00669	0.00079	62.0	62.0	62.0	0	0	1	-30.0	30.0								
	16	93	0.00506	0.01482	0.00168	333.45	384.75	384.8	0	0	1	-30.0	30.0								
	17	81	0.00892	0.05374	0.01281	263.101	249.0	249.0	0	0	1	-30.0	30.0								
	17	93	0.0001	0.001	0.0	263.101	312.0	312.0	0	0	1	-30.0	30.0								
	18	66	2.0e-5	0.001	0.0	333.0	350.0	350.0	0	0	1	-30.0	30.0								
	19	31	0.00071	0.00582	0.01221	510.0	510.0	510.0	0	0	1	-30.0	30.0								
	19	35	7.0e-5	0.001	0.00171	564.0	612.0	612.0	0	0	1	-30.0	30.0								
	19	69	0.0001	0.001	0.0	260.0	312.0	312.0	0	0	1	-30.0	30.0								
	21	57	0.04598	0.09139	0.00983	86.0	86.0	86.0	0	0	1	-30.0	30.0								
	21	91	0.02947	0.10073	0.01266	86.0	86.0	86.0	0	0	1	-30.0	30.0								
	22	67	0.01108	0.04402	0.00618	236.27	283.52	283.52	0	0	1	-30.0	30.0								
	22	73	0.00993	0.03804	0.00535	225.46	270.55	270.6	0	0	1	-30.0	30.0								
	23	44	0.00266	0.01058	0.0015	276.93	332.32	332.32	0	0	1	-30.0	30.0								
	23	137	0.0001	0.01	0.0	152.75	183.3	183.3	1.0	0.0	1	-30.0	30.0								
	23	254	0.0001	0.01	0.0	300.0	400.0	400.0	1.0	0.0	1	-30.0	30.0								
	24	94	0.00489	0.02021	0.00261	141.0	153.0	153.0	0	0	1	-30.0	30.0								
	27	72	0.01151	0.02166	0.00241	74.0	74.0	74.0	0	0	1	-30.0	30.0								
	30	73	0.01736	0.07168	0.00928	165.0	165.0	165.0	0	0	1	-30.0	30.0								
	30	94	0.01303	0.05385	0.00695	141.0	153.0	153.0	0	0	1	-30.0	30.0								
	31	38	0.00032	0.00211	0.00427	406.0	432.0	432.0	0	0	1	-30.0	30.0								
	31	66	0.00151	0.01243	0.02626	497.0	497.0	497.0	0	0	1	-30.0	30.0								
	31	66	0.00151	0.01236	0.02612	510.0	510.0	510.0	0	0	1	-30.0	30.0								
	32	50	0.0092	0.02296	0.00287	260.0	312.0	312.0	0	0	1	-30.0	30.0								
	32	72	0.02022	0.04363	0.00517	74.0	74.0	74.0	0	0	1	-30.0	30.0								
	33	36	0.0001	0.001	0.0	260.0	312.0	312.0	0	0	1	-30.0	30.0								
	36	38	0.00062	0.00521	0.01419	633.0	633.0	633.0	0	0	1	-30.0	30.0								
	36	45	0.0001	0.001	0.0	260.0	312.0	312.0	0	0	1	-30.0	30.0								
	36	483	0.0001	0.01	0.0	260.035	297.22	297.22	0	0	1	-30.0	30.0								
	37	55	0.00249	0.02091	0.043	510.0	510.0	510.0	0	0	1	-30.0	30.0								
	37	79	0.00037	0.00306	0.00647	510.0	510.0	510.0	0	0	1	-30.0	30.0								
	40	47	0.00855	0.03356	0.00426	160.0	160.0	160.0	0	0	1	-30.0	30.0								
	40	93	0.01448	0.0565	0.00724	160.0	160.0	160.0	0	0	1	-30.0	30.0								
	41	46	0.00572	0.03592	0.12701	617.0	617.0	617.0	0	0	1	-30.0	30.0								
	41	87	0.0001	0.001	0.0	260.0	312.0	312.0	0	0	1	-30.0	30.0								
	44	67	0.01683	0.06688	0.0094	264.9	317.88	317.9	0	0	1	-30.0	30.0								
	46	90	0.00242	0.01482	0.05476	658.0	658.0	658.0	0	0	1	-30.0	30.0								
	50	74	0.00113	0.00465	0.00061	74.0	74.0	74.0	0	0	1	-30.0	30.0								
	52	87	0.0001	0.001	0.0	260.0	312.0	312.0	0	0	1	-30.0	30.0								
	53	62	0.00689	0.01291	0.00144	74.0	74.0	74.0	0	0	1	-30.0	30.0								
	53	82	0.00037	0.001	0.0	74.0	74.0	74.0	0	0	1	-30.0	30.0								
	57	85	0.0002	0.001	0.0	86.0	86.0	86.0	0	0	1	-30.0	30.0								
	58	76	0.02397	0.04498	0.00499	74.0	74.0	74.0	0	0	1	-30.0	30.0								
	58	91	0.0293	0.08307	0.00997	128.0	128.0	128.0	0	0	1	-30.0	30.0								
	58	92	0.03256	0.0924	0.01108	59.0	59.0	59.0	0	0	1	-30.0	30.0								
	58	499	0.0001	0.01	0.0	139.18	167.01	167.01	0	0	1	-30.0	30.0								
	62	76	0.00523	0.00981	0.00108	74.0	74.0	74.0	0	0	1	-30.0	30.0								
	63	90	0.00075	0.00528	0.02325	331.0	331.0	331.0	0	0	1	-30.0	30.0								
	68	83	0.01058	0.02193	0.00216	86.0	86.0	86.0	0	0	1	-30.0	30.0								
	68	84	0.0059	0.01222	0.00121	86.0	86.0	86.0	0	0	1	-30.0	30.0								
	69	86	0.00519	0.04108	0.09283	510.0	510.0	510.0	0	0	1	-30.0	30.0								
	71	93	0.03778	0.11512	0.0141	128.0	128.0	128.0	0	0	1	-30.0	30.0								
	79	87	0.00493	0.0412	0.0844	510.0	510.0	510.0	0	0	1	-30.0	30.0								
	81	494	0.0001	0.01	0.0	235.85	272.14	272.14	0	0	1	-30.0	30.0								
	83	91	0.0039	0.01106	0.00133	86.0	86.0	86.0	0	0	1	-30.0	30.0								
	95	96	2.0e-5	0.00021	0.0	876.0	876.0	876.0	0	0	1	-30.0	30.0								
	95	99	0.00171	0.00961	0.01424	250.0	250.0	250.0	0	0	1	-30.0	30.0								
	96	748	0.0001	0.01	0.0	121.81	146.17	146.2	0	0	1	-30.0	30.0								
	97	98	2.0e-5	0.00021	0.0	876.0	876.0	876.0	0	0	1	-30.0	30.0								
	97	100	0.00194	0.01415	0.0223	341.0	341.0	341.0	0	0	1	-30.0	30.0								
	97	697	0.0001	0.01	0.0	83.7	98.6	98.6	0	0	1	-30.0	30.0								
	98	749	0.0001	0.01	0.0	122.55	141.4	141.4	0	0	1	-30.0	30.0								
	99	100	2.0e-5	0.00021	0.0	876.0	876.0	876.0	0	0	1	-30.0	30.0								
	99	102	0.00537	0.04039	0.06005	319.0	319.0	319.0	0	0	1	-30.0	30.0								
	100	698	0.0001	0.01	0.0	187.88	216.79	216.8	0	0	1	-30.0	30.0								
	101	102	0.00066	0.00496	0.00758	319.0	319.0	319.0	0	0	1	-30.0	30.0								
	101	696	0.0001	0.01	0.0	125.8	150.96	151.0	0	0	1	-30.0	30.0								
	102	747	0.0001	0.01	0.0	258.73	298.54	298.54	0	0	1	-30.0	30.0								
	103	152	0.01248	0.04595	0.00524	75.0	75.0	75.0	0	0	1	-30.0	30.0								
	104	105	8.0e-5	0.00083	0.0	634.11	731.66	731.7	0	0	1	-30.0	30.0								
	104	170	0.00364	0.01149	0.00123	644.69	743.87	743.9	0	0	1	-30.0	30.0								
	105	180	0.00653	0.02058	0.00222	628.23	724.88	724.9	0	0	1	-30.0	30.0								
	106	107	8.0e-5	0.00083	0.0	438.0	438.0	438.0	0	0	1	-30.0	30.0								
	106	140	0.00488	0.01231	0.00189	74.62	97.01	97.01	0	0	1	-30.0	30.0								
	107	203	0.00074	0.00223	0.0003	62.0	62.0	62.0	0	0	1	-30.0	30.0								
	108	170	0.00157	0.00463	0.00057	653.46	753.99	754.0	0	0	1	-30.0	30.0								
	108	684	0.0001	0.01	0.0	667.77	770.51	770.51	0	0	1	-30.0	30.0								
	109	144	0.00041	0.00124	0.00013	75.0	75.0	75.0	0	0	1	-30.0	30.0								
	110	111	8.0e-5	0.00083	0.0	438.0	438.0	438.0	0	0	1	-30.0	30.0								
	110	140	0.00455	0.01289	0.00174	62.0	62.0	62.0	0	0	1	-30.0	30.0								
	111	207	0.00603	0.01711	0.00231	62.0	62.0	62.0	0	0	1	-30.0	30.0								
	112	113	8.0e-5	0.00083	0.0	438.0	438.0	438.0	0	0	1	-30.0	30.0								
	112	114	0.0005	0.00149	0.0096	98.0	98.0	98.0	0	0	1	-30.0	30.0								
	114	131	8.0e-5	0.00066	7.0e-5	132.0	152.31	152.31	0	0	1	-30.0	30.0								
	114	190	0.00207	0.01413	0.00162	154.01	177.7	177.7	0	0	1	-30.0	30.0								
	115	126	0.00339	0.01116	0.00113	75.0	75.0	75.0	0	0	1	-30.0	30.0								
	115	150	0.00132	0.00231	0.00023	47.0	47.0	47.0	0	0	1	-30.0	30.0								
	115	175	0.00636	0.0205	0.00213	75.0	75.0	75.0	0	0	1	-30.0	30.0								
	115	178	0.00264	0.00818	0.00094	75.0	75.0	75.0	0	0	1	-30.0	30.0								
	115	192	0.0081	0.02298	0.00239	63.0	63.0	63.0	0	0	1	-30.0	30.0								
	116	117	8.0e-5	0.00083	0.0	438.0	438.0	438.0	0	0	1	-30.0	30.0								
	116	132	0.00174	0.00496	0.00065	57.0	57.0	57.0	0	0	1	-30.0	30.0								
	116	153	0.00455	0.01405	0.0016	75.0	75.0	75.0	0	0	1	-30.0	30.0								
	116	186	0.00504	0.01562	0.00173	75.0	75.0	75.0	0	0	1	-30.0	30.0								
	116	195	0.00711	0.02322	0.00234	302.57	349.12	349.12	0	0	1	-30.0	30.0								
	117	145	0.00496	0.01628	0.00164	123.52	148.23	148.23	0	0	1	-30.0	30.0								
	117	168	0.00496	0.01496	0.00179	172.26	198.76	198.8	0	0	1	-30.0	30.0								
	117	187	0.00504	0.01562	0.00173	75.0	75.0	75.0	0	0	1	-30.0	30.0								
	118	119	0.00124	0.00421	0.00059	70.0	70.0	70.0	0	0	1	-30.0	30.0								
	119	122	0.00413	0.01587	0.00183	91.74	105.86	105.9	0	0	1	-30.0	30.0								
	119	152	0.00488	0.01678	0.00193	100.5	115.96	116.0	0	0	1	-30.0	30.0								
	120	144	0.00355	0.01149	0.00116	75.0	75.0	75.0	0	0	1	-30.0	30.0								
	120	199	0.00182	0.00587	0.00587	114.0	114.0	114.0	0	0	1	-30.0	30.0								
	121	122	8.0e-5	0.00083	0.0	438.0	438.0	438.0	0	0	1	-30.0	30.0								
	121	124	0.00066	0.00207	0.00021	75.0	75.0	75.0	0	0	1	-30.0	30.0								
	121	136	0.00066	0.0024	0.00031	80.0	80.0	80.0	0	0	1	-30.0	30.0								
	121	144	0.00314	0.01355	0.00135	80.0	80.0	80.0	0	0	1	-30.0	30.0								
	121	162	0.00223	0.00826	0.00099	70.0	70.0	70.0	0	0	1	-30.0	30.0								
	122	123	0.00066	0.00215	0.00022	75.0	75.0	75.0	0	0	1	-30.0	30.0								
	122	144	0.00314	0.01355	0.00135	80.0	80.0	80.0	0	0	1	-30.0	30.0								
	122	197	0.00091	0.00273	0.00033	75.0	75.0	75.0	0	0	1	-30.0	30.0								
	125	144	0.0014	0.00455	0.00046	75.0	75.0	75.0	0	0	1	-30.0	30.0								
	127	128	8.0e-5	0.00083	0.0	438.0	438.0	438.0	0	0	1	-30.0	30.0								
	127	140	0.00405	0.01331	0.00135	107.11	123.59	123.6	0	0	1	-30.0	30.0								
	128	182	0.01025	0.02926	0.0039	107.37	123.89	123.9	0	0	1	-30.0	30.0								
	129	130	0.00231	0.00273	0.00058	39.0	39.0	39.0	0	0	1	-30.0	30.0								
	130	151	0.00579	0.01785	0.00204	198.93	238.72	238.72	0	0	1	-30.0	30.0								
	130	174	0.0043	0.01347	0.00147	188.62	226.34	226.34	0	0	1	-30.0	30.0								
	133	167	0.01198	0.03702	0.00418	156.12	180.13	180.13	0	0	1	-30.0	30.0								
	133	757	0.0001	0.01	0.0	151.01	174.25	174.3	0	0	1	-30.0	30.0								
	135	144	0.00372	0.01207	0.00122	75.0	75.0	75.0	0	0	1	-30.0	30.0								
	137	174	0.00686	0.02215	0.00232	174.85	209.82	209.82	0	0	1	-30.0	30.0								
	138	139	0.00033	0.00041	9.0e-5	39.0	39.0	39.0	0	0	1	-30.0	30.0								
	139	151	0.0076	0.02355	0.00263	604.64	697.67	697.7	0	0	1	-30.0	30.0								
	139	179	0.00273	0.00876	0.0009	607.79	701.3	701.3	0	0	1	-30.0	30.0								
	140	190	0.01694	0.05562	0.0056	95.16	109.8	109.8	0	0	1	-30.0	30.0								
	141	151	0.03413	0.08545	0.00909	144.77	167.04	167.04	0	0	1	-30.0	30.0								
	141	158	0.00992	0.01661	0.00395	109.6	126.46	126.5	0	0	1	-30.0	30.0								
	141	164	0.02496	0.03802	0.00491	39.0	39.0	39.0	0	0	1	-30.0	30.0								
	141	205	0.0062	0.01562	0.00277	62.0	62.0	62.0	0	0	1	-30.0	30.0								
	142	143	8.0e-5	0.00083	0.0	438.0	438.0	438.0	0	0	1	-30.0	30.0								
	142	211	0.00463	0.01446	0.00163	75.0	75.0	75.0	0	0	1	-30.0	30.0								
	143	740	0.0001	0.01	0.0	83.7	98.6	98.6	0	0	1	-30.0	30.0								
	144	192	0.0014	0.00471	0.00048	75.0	75.0	75.0	0	0	1	-30.0	30.0								
	144	193	0.00331	0.01066	0.0011	75.0	75.0	75.0	0	0	1	-30.0	30.0								
	145	275	0.0001	0.01	0.0	124.05	148.86	148.9	0	0	1	-30.0	30.0								
	146	147	8.0e-5	0.00083	0.0	438.0	438.0	438.0	0	0	1	-30.0	30.0								
	146	155	0.0105	0.02983	0.00402	62.0	62.0	62.0	0	0	1	-30.0	30.0								
	147	208	0.01909	0.05413	0.00729	62.0	62.0	62.0	0	0	1	-30.0	30.0								
	148	149	0.00438	0.0086	0.00086	47.0	47.0	47.0	0	0	1	-30.0	30.0								
	149	176	0.00628	0.02	0.00213	75.0	75.0	75.0	0	0	1	-30.0	30.0								
	149	272	0.0001	0.01	0.0	83.7	98.6	98.6	0	0	1	-30.0	30.0								
	151	189	0.00579	0.01446	0.00162	113.45	130.9	130.9	0	0	1	-30.0	30.0								
	152	161	0.00769	0.02711	0.00317	85.94	111.72	111.72	0	0	1	-30.0	30.0								
	152	186	0.01025	0.03198	0.00354	62.0	62.0	62.0	0	0	1	-30.0	30.0								
	152	187	0.01025	0.03198	0.00354	62.0	62.0	62.0	0	0	1	-30.0	30.0								
	153	154	8.0e-5	0.00083	0.0	438.0	438.0	438.0	0	0	1	-30.0	30.0								
	154	211	0.00091	0.00256	0.00033	75.0	75.0	75.0	0	0	1	-30.0	30.0								
	155	156	8.0e-5	0.00083	0.0	438.0	438.0	438.0	0	0	1	-30.0	30.0								
	155	165	0.00628	0.01959	0.00217	62.0	62.0	62.0	0	0	1	-30.0	30.0								
	155	201	0.00083	0.00248	0.00027	62.0	62.0	62.0	0	0	1	-30.0	30.0								
	156	166	0.0062	0.01942	0.00215	62.0	62.0	62.0	0	0	1	-30.0	30.0								
	156	172	0.01587	0.05182	0.00527	62.0	62.0	62.0	0	0	1	-30.0	30.0								
	156	204	0.00124	0.00355	0.00045	62.0	62.0	62.0	0	0	1	-30.0	30.0								
	156	206	0.00198	0.00529	0.00071	50.0	50.0	50.0	0	0	1	-30.0	30.0								
	156	656	0.0001	0.01	0.0	106.7	123.11	123.11	0	0	1	-30.0	30.0								
	157	158	0.00223	0.00562	0.0006	50.0	50.0	50.0	0	0	1	-30.0	30.0								
	158	190	0.01471	0.03025	0.00563	110.38	127.36	127.4	0	0	1	-30.0	30.0								
	159	160	8.0e-5	0.00083	0.0	438.0	438.0	438.0	0	0	1	-30.0	30.0								
	159	386	0.0001	0.01	0.0	151.46	174.76	174.8	0	0	1	-30.0	30.0								
	160	171	0.01488	0.02661	0.00302	50.93	61.12	61.12	0	0	1	-30.0	30.0								
	161	162	8.0e-5	0.00083	0.0	438.0	438.0	438.0	0	0	1	-30.0	30.0								
	163	164	8.0e-5	0.00083	0.0	438.0	438.0	438.0	0	0	1	-30.0	30.0								
	163	171	0.00215	0.00603	0.00063	39.0	39.0	39.0	0	0	1	-30.0	30.0								
	167	168	8.0e-5	0.00083	0.0	438.0	438.0	438.0	0	0	1	-30.0	30.0								
	169	170	0.00231	0.00694	0.00072	63.0	63.0	63.0	0	0	1	-30.0	30.0								
	171	172	8.0e-5	0.00083	0.0	438.0	438.0	438.0	0	0	1	-30.0	30.0								
	173	174	0.00603	0.01744	0.0023	105.0	105.0	105.0	0	0	1	-30.0	30.0								
	175	176	8.0e-5	0.00083	0.0	438.0	438.0	438.0	0	0	1	-30.0	30.0								
	177	178	0.00124	0.00364	0.00047	57.0	57.0	57.0	0	0	1	-30.0	30.0								
	178	199	0.0038	0.01215	0.00125	75.0	75.0	75.0	0	0	1	-30.0	30.0								
	179	180	8.0e-5	0.00083	0.0	615.32	709.99	710.0	0	0	1	-30.0	30.0								
	181	182	8.0e-5	0.00083	0.0	438.0	438.0	438.0	0	0	1	-30.0	30.0								
	181	183	0.01248	0.03545	0.00474	112.57	129.89	129.9	0	0	1	-30.0	30.0								
	183	188	0.00769	0.01934	0.00211	112.18	129.43	129.43	0	0	1	-30.0	30.0								
	184	186	0.00521	0.00884	0.00089	47.0	47.0	47.0	0	0	1	-30.0	30.0								
	185	187	0.00521	0.00884	0.00089	47.0	47.0	47.0	0	0	1	-30.0	30.0								
	188	189	8.0e-5	0.00083	0.0	438.0	438.0	438.0	0	0	1	-30.0	30.0								
	190	196	0.00372	0.01231	0.00124	62.0	62.0	62.0	0	0	1	-30.0	30.0								
	190	444	0.0001	0.01	0.0	83.7	98.6	98.6	0	0	1	-30.0	30.0								
	191	192	0.0005	0.0014	0.00017	75.0	75.0	75.0	0	0	1	-30.0	30.0								
	194	195	0.00074	0.00231	0.00026	75.0	75.0	75.0	0	0	1	-30.0	30.0								
	195	474	0.0001	0.01	0.0	318.91	367.97	368.0	0	0	1	-30.0	30.0								
	198	199	8.0e-5	0.0002	2.0e-5	75.0	75.0	75.0	0	0	1	-30.0	30.0								
	200	201	8.0e-5	0.00083	0.0	438.0	438.0	438.0	0	0	1	-30.0	30.0								
	200	202	0.00149	0.00446	0.00057	62.0	62.0	62.0	0	0	1	-30.0	30.0								
	202	203	8.0e-5	0.00083	0.0	438.0	438.0	438.0	0	0	1	-30.0	30.0								
	204	205	8.0e-5	0.00083	0.0	438.0	438.0	438.0	0	0	1	-30.0	30.0								
	206	207	8.0e-5	0.00083	0.0	438.0	438.0	438.0	0	0	1	-30.0	30.0								
	209	210	8.0e-5	0.00083	0.0	438.0	438.0	438.0	0	0	1	-30.0	30.0								
	209	211	0.0	0.0002	0.0	75.0	75.0	75.0	0	0	1	-30.0	30.0								
	212	221	0.0012	0.0089	0.01512	461.0	461.0	461.0	0	0	1	-30.0	30.0								
...
];

%%-----	  OPF Data  -----%%
%% cost data
%    1    startup    shutdown    n    x1    y1    ...    xn    yn
%    2    startup    shutdown    n    c(n-1)    ...    c0
mpc.gencost = [
	2	0.0	0.0	3	0.3016	13.02	1978.0
	2	0.0	0.0	3	0.0	2.538	213.5
	2	0.0	0.0	3	0.01292	15.5	202.5
	2	0.0	0.0	3	0.0	26.43	758.4
	2	0.0	0.0	3	0.06078	43.02	1670.0
	2	0.0	0.0	3	0.0	23.65	672.0
	2	0.0	0.0	3	0.01081	15.41	213.7
	2	0.0	0.0	3	0.0	0.6708	144.4
	2	0.0	0.0	3	0.0	77.38	522.8
	2	0.0	0.0	3	0.0	2.142	126.4
	2	0.0	0.0	3	0.04435	39.84	3035.0
	2	0.0	0.0	3	0.0	21.09	695.5
	2	0.0	0.0	3	0.0	17.43	985.6
	2	0.0	0.0	3	0.09406	59.56	1157.0
	2	0.0	0.0	3	0.06486	49.21	1771.0
	2	0.0	0.0	3	0.00778	18.42	358.9
	2	0.0	0.0	3	0.01329	16.94	642.6
	2	0.0	0.0	3	1.128	0.0	274.4
	2	0.0	0.0	3	0.2192	0.0	1553.0
	2	0.0	0.0	3	0.0	44.01	171.2
	2	0.0	0.0	3	0.6552	24.43	96.25
	2	0.0	0.0	3	0.1304	1.185	1232.0
	2	0.0	0.0	3	0.00904	19.88	234.2
	2	0.0	0.0	3	0.0	4.068	686.1
	2	0.0	0.0	3	0.00977	20.66	261.7
	2	0.0	0.0	3	0.0	13.09	4280.0
	2	0.0	0.0	3	0.1005	52.86	3001.0
	2	0.0	0.0	3	0.1003	52.9	2957.0
	2	0.0	0.0	3	0.0	70.0	247.0
	2	0.0	0.0	3	0.0454	44.38	336.4
	2	0.0	0.0	3	0.05251	44.89	1787.0
	2	0.0	0.0	3	0.3784	0.0	2845.0
	2	0.0	0.0	3	0.06242	43.51	1696.0
	2	0.0	0.0	3	0.0	67.83	196.9
	2	0.0	0.0	3	0.0	62.45	191.5
	2	0.0	0.0	3	2.449	76.41	-630.7
	2	0.0	0.0	3	4.717	82.49	-908.0
	2	0.0	0.0	3	0.00786	18.53	214.6
	2	0.0	0.0	3	0.0	19.47	519.8
	2	0.0	0.0	3	0.2025	68.71	1384.0
	2	0.0	0.0	3	0.1431	63.43	1774.0
	2	0.0	0.0	3	0.0454	44.38	318.3
	2	0.0	0.0	3	0.1066	52.17	3319.0
	2	0.0	0.0	3	0.8274	14.92	1335.0
	2	0.0	0.0	3	0.0	66.01	356.8
	2	0.0	0.0	3	0.0	0.6711	48.22
	2	0.0	0.0	3	0.06486	36.76	652.0
	2	0.0	0.0	3	0.0	5.512	1480.0
	2	0.0	0.0	3	0.0	1.538	16190.0
	2	0.0	0.0	3	0.0	2.841	15420.0
	2	0.0	0.0	3	0.0	3.003	18870.0
	2	0.0	0.0	3	0.0	1.273	11880.0
	2	0.0	0.0	3	0.0	4.166	18630.0
	2	0.0	0.0	3	0.00045	0.3207	3547.0
	2	0.0	0.0	3	0.0	0.9391	4614.0
	2	0.0	0.0	3	0.0	0.9235	4067.0
	2	0.0	0.0	3	0.0	1.071	17750.0
	2	0.0	0.0	3	0.0	4.116	19350.0
	2	0.0	0.0	3	0.0	3.637	17110.0
	2	0.0	0.0	3	0.04256	27.13	2989.0
	2	0.0	0.0	3	0.0	60.53	3696.0
	2	0.0	0.0	3	0.0	0.4793	99.61
	2	0.0	0.0	3	0.0	1.205	15480.0
	2	0.0	0.0	3	0.0	5.534	141.3
	2	0.0	0.0	3	0.01255	16.6	187.2
	2	0.0	0.0	3	0.0	1.686	212.0
	2	0.0	0.0	3	0.0	1.82	6060.0
	2	0.0	0.0	3	0.0	3.544	205.7
	2	0.0	0.0	3	0.0	49.98	-45.11
	2	0.0	0.0	3	0.00831	19.07	156.4
	2	0.0	0.0	3	0.2128	48.21	3398.0
	2	0.0	0.0	3	0.217	47.0	3495.0
	2	0.0	0.0	3	0.0	9.811	151.8
	2	0.0	0.0	3	0.0454	44.38	300.4
	2	0.0	0.0	3	0.0	81.4	-1502.0
	2	0.0	0.0	3	0.275	15.67	5832.0
	2	0.0	0.0	3	0.47	8.416	390.0
	2	0.0	0.0	3	0.00325	0.0	13790.0
	2	0.0	0.0	3	0.2824	13.5	5978.0
	2	0.0	0.0	3	0.2244	44.85	-383.5
	2	0.0	0.0	3	0.00918	20.04	176.9
	2	0.0	0.0	3	0.00826	19.01	204.6
	2	0.0	0.0	3	0.0	10.06	244.8
	2	0.0	0.0	3	0.06668	49.84	1716.0
	2	0.0	0.0	3	0.01059	21.52	199.4
	2	0.0	0.0	3	0.06804	51.51	1294.0
	2	0.0	0.0	3	1.579	0.0	-11380.0
	2	0.0	0.0	3	0.0	2.164	10100.0
	2	0.0	0.0	3	0.0	89.5	336.7
	2	0.0	0.0	3	0.0	19.07	8130.0
	2	0.0	0.0	3	0.03119	20.17	7383.0
	2	0.0	0.0	3	0.0	35.66	7315.0
	2	0.0	0.0	3	0.01809	25.59	190.9
	2	0.0	0.0	3	0.0	17.01	1268.0
	2	0.0	0.0	3	0.2625	25.7	2854.0
	2	0.0	0.0	3	0.0	1.13	156.2
	2	0.0	0.0	3	0.7838	12.28	118.5
	2	0.0	0.0	3	0.01012	21.02	299.1
	2	0.0	0.0	3	0.0	23.9	257.6
	2	0.0	0.0	3	0.0	94.83	-22.46
	2	0.0	0.0	3	0.0	51.01	106.4
	2	0.0	0.0	3	0.0	77.62	1098.0
	2	0.0	0.0	3	0.0	1.76	141.4
	2	0.0	0.0	3	0.08278	0.1115	211.4
	2	0.0	0.0	3	0.0086	17.63	189.2
	2	0.0	0.0	3	0.0	21.77	220.5
	2	0.0	0.0	3	0.0	1.676	146.7
	2	0.0	0.0	3	0.0107	15.33	195.9
	2	0.0	0.0	3	0.00808	18.8	143.0
	2	0.0	0.0	3	0.04668	45.11	227.7
	2	0.0	0.0	3	0.00808	18.8	193.0
	2	0.0	0.0	3	0.0087	19.51	209.6
	2	0.0	0.0	3	0.0	2.138	139.0
	2	0.0	0.0	3	0.05524	48.18	652.5
	2	0.0	0.0	3	0.02711	33.37	1561.0
	2	0.0	0.0	3	0.01192	16.16	266.9
	2	0.0	0.0	3	0.0	51.48	17.44
	2	0.0	0.0	3	0.01081	15.39	277.5
	2	0.0	0.0	3	0.0	7.31	247.0
	2	0.0	0.0	3	0.00895	17.98	164.5
	2	0.0	0.0	3	0.0	29.28	479.9
	2	0.0	0.0	3	0.0	64.5	322.7
	2	0.0	0.0	3	0.0	43.28	471.9
	2	0.0	0.0	3	0.0	53.61	390.8
	2	0.0	0.0	3	0.9649	0.0	628.1
	2	0.0	0.0	3	0.06768	18.69	974.5
	2	0.0	0.0	3	0.0	18.7	1479.0
	2	0.0	0.0	3	0.0	15.78	691.4
	2	0.0	0.0	3	0.1137	65.7	871.0
	2	0.0	0.0	3	0.0	0.2401	3335.0
	2	0.0	0.0	3	0.06569	49.5	1760.0
	2	0.0	0.0	3	0.0	3.714	633.6
	2	0.0	0.0	3	0.0	8.259	333.1
	2	0.0	0.0	3	0.0	24.7	1933.0
	2	0.0	0.0	3	0.0	398.8	-54750.0
	2	0.0	0.0	3	0.0	4.773	296.4
	2	0.0	0.0	3	0.0	4.942	1034.0
	2	0.0	0.0	3	0.06532	49.14	2431.0
	2	0.0	0.0	3	0.09032	37.85	2199.0
	2	0.0	0.0	3	0.05437	46.25	1454.0
	2	0.0	0.0	3	0.04343	42.71	801.8
	2	0.0	0.0	3	0.09176	54.42	2277.0
	2	0.0	0.0	3	0.0519	45.5	1326.0
	2	0.0	0.0	3	0.0	20.11	3008.0
	2	0.0	0.0	3	0.09601	57.54	1716.0
	2	0.0	0.0	3	0.09265	56.91	1655.0
	2	0.0	0.0	3	2.068	16.72	111.4
	2	0.0	0.0	3	0.0	41.81	2031.0
	2	0.0	0.0	3	0.0	74.05	4697.0
	2	0.0	0.0	3	0.0	85.46	3168.0
	2	0.0	0.0	3	0.04212	22.28	7101.0
	2	0.0	0.0	3	0.0	0.4214	169.0
	2	0.0	0.0	3	0.02226	27.33	6553.0
	2	0.0	0.0	3	0.03834	33.54	6494.0
	2	0.0	0.0	3	0.02235	27.38	6584.0
	2	0.0	0.0	3	0.0	0.4625	4641.0
	2	0.0	0.0	3	0.0	74.01	386.3
	2	0.0	0.0	3	0.03239	32.02	6079.0
	2	0.0	0.0	3	0.00763	18.26	176.1
	2	0.0	0.0	3	0.0	87.54	-61.49
	2	0.0	0.0	3	0.0	8.465	98.0
	2	0.0	0.0	3	0.0	12.8	233.8
	2	0.0	0.0	3	0.01217	16.34	175.8
	2	0.0	0.0	3	0.0	23.63	522.8
	2	0.0	0.0	3	0.0	5.747	187.9
	2	0.0	0.0	3	0.01055	15.22	178.1
	2	0.0	0.0	3	0.03709	39.68	881.4
	2	0.0	0.0	3	0.01119	15.37	1305.0
	2	0.0	0.0	3	0.0	20.55	4294.0
	2	0.0	0.0	3	0.9687	0.0	-20420.0
	2	0.0	0.0	3	0.02357	27.61	7140.0
	2	0.0	0.0	3	0.02357	27.61	7152.0
	2	0.0	0.0	3	0.02357	27.61	7110.0
	2	0.0	0.0	3	0.0193	29.08	183.9
	2	0.0	0.0	3	0.00238	0.7386	443.0
	2	0.0	0.0	3	0.0	18.91	1247.0
	2	0.0	0.0	3	0.0	21.13	1235.0
	2	0.0	0.0	3	0.0	21.2	209.6
	2	0.0	0.0	3	0.0	1.149	139.7
	2	0.0	0.0	3	0.0	67.43	73.82
	2	0.0	0.0	3	0.0	59.45	120.0
	2	0.0	0.0	3	0.0	2.748	209.6
	2	0.0	0.0	3	0.0	1.64	166.1
	2	0.0	0.0	3	0.0082	18.94	204.7
	2	0.0	0.0	3	0.0	52.38	101.9
	2	0.0	0.0	3	0.00947	20.36	183.8
	2	0.0	0.0	3	0.0	1.218	168.8
	2	0.0	0.0	3	0.0	10.91	732.8
	2	0.0	0.0	3	0.00857	19.37	179.9
	2	0.0	0.0	3	0.0	1.943	143.5
	2	0.0	0.0	3	0.00177	0.3686	137.1
	2	0.0	0.0	3	0.0	0.4349	111.1
	2	0.0	0.0	3	0.0	16.31	691.0
	2	0.0	0.0	3	0.01385	17.37	390.3
	2	0.0	0.0	3	0.1028	52.35	645.2
	2	0.0	0.0	3	0.05251	44.89	1793.0
	2	0.0	0.0	3	0.1328	46.24	1523.0
	2	0.0	0.0	3	0.0666	49.75	1802.0
	2	0.0	0.0	3	0.1065	52.18	3283.0
	2	0.0	0.0	3	0.7082	63.26	-1342.0
...
];

	 